/batch
/config,noeldb,1     ! force off writing results to database
*get,_wallstrt,active,,time,wall
! ANSYS input file written by Workbench version 18.2 RELEASE
! File used for geometry attach: C:\Users\Saraswathi Andappan\Desktop\ANSYS Cornell\crank_files\dp0\SYS\DM\SYS.agdb
/title,crank--Static Structural (A5)
*DIM,_wb_ProjectScratch_dir,string,248
_wb_ProjectScratch_dir(1) = 'C:\Users\Saraswathi Andappan\Desktop\ANSYS Cornell\_ProjectScratch\Scr6729\'
*DIM,_wb_SolverFiles_dir,string,248
_wb_SolverFiles_dir(1) = 'C:\Users\Saraswathi Andappan\Desktop\ANSYS Cornell\crank_files\dp0\SYS\MECH\'
*DIM,_wb_userfiles_dir,string,248
_wb_userfiles_dir(1) = 'C:\Users\Saraswathi Andappan\Desktop\ANSYS Cornell\crank_files\user_files\'
/com,--- Data in consistent BIN units. See Solving Units in the help system for more information.
/units,BIN
/nopr
/wb,file,start              !  signify a WB generated input file
/prep7
! Turn off shape checking because checks already performed inside WB mesher.
! See help system for more information.
SHPP,OFF,,NOWARN
/nolist
etcon,set             ! allow ANSYS to choose best KEYOP's for 180x elements
/com,*********** Nodes for the whole assembly ***********
nblock,3,,23763
(1i9,3e20.9e3)
        1    6.738195907E+000    3.553406833E-001    0.000000000E+000
        2    6.781930438E+000    4.919182219E-001    0.000000000E+000
        3    6.624107367E+000    3.616608318E-001    0.000000000E+000
        4    6.641836490E+000    4.973017407E-001    0.000000000E+000
        5    6.738202865E+000    3.553398893E-001    4.166666874E-002
        6    6.781934645E+000    4.919182408E-001    4.166666667E-002
        7    6.624124679E+000    3.616950781E-001    4.166665966E-002
        8    6.641840630E+000    4.973017838E-001    4.166666667E-002
        9    6.569581203E+000    2.173942960E-001    0.000000000E+000
       10    6.692913376E+000    2.500000000E-001    0.000000000E+000
       11    6.569617557E+000    2.174813231E-001    4.166664699E-002
       12    6.692913376E+000    2.500000000E-001    4.166666667E-002
       13    6.287401821E+000    1.481867046E-001    0.000000000E+000
       14    6.477196519E+000    1.263349550E-001    0.000000000E+000
       15    6.452519898E+000    2.890191490E-001    0.000000000E+000
       16    6.287405676E+000    1.481866774E-001    4.166666667E-002
       17    6.477216220E+000    1.263911922E-001    4.166667258E-002
       18    6.452536636E+000    2.890534510E-001    4.166665943E-002
       19    6.384619415E+000    3.935380431E-001    0.000000000E+000
       20    6.287401575E+000    2.925232283E-001    0.000000000E+000
! ... 21584 like lines cut
/wb,elem,start            !  set before creation of elements
/com,*********** Elements for Body 1 "Bike Crank 2 rev 2011 x.375" ***********
et,1,186
keyo,1,2,1          ! set full integration on SOLID186
eblock,19,solid,,4329
(19i9)
        1        1        1        1        0        0        0        0       20        0        1     5164     5174     4954     4953     5771     5781     5561     5560
    20048    20047    19364    20016     5791    21603    21100    21582    21581    21602    21101    21098
        1        1        1        1        0        0        0        0       20        0        2     5174     5173     4955     4954     5781     5780     5562     5561
    20046    20044    19367    20047     5792    21601    21103    21603    21602    21600    21104    21101
        1        1        1        1        0        0        0        0       20        0        3     5173     5172     4988     4955     5780     5779     5595     5562
    20043    20041    19465    20044     6124    21599    21201    21601    21600    21598    21198    21104
        1        1        1        1        0        0        0        0       20        0        4     5172     5171     4987     4988     5779     5778     5594     5595
    20040    20038    19463    20041     6125    21597    21199    21599    21598    21596    21195    21198
        1        1        1        1        0        0        0        0       20        0        5     5171     5170     4986     4987     5778     5777     5593     5594
    20037    20035    19460    20038     6126    21595    21196    21597    21596    21594    21192    21195
        1        1        1        1        0        0        0        0       20        0        6     5170     5169     4984     4986     5777     5776     5591     5593
    20034    20032    19457    20035     6121    21593    21193    21595    21594    21592    21187    21192
        1        1        1        1        0        0        0        0       20        0        7     5169     5168     4985     4984     5776     5775     5592     5591
    20031    20029    19452    20032     6122    21591    21188    21593    21592    21590    21189    21187
        1        1        1        1        0        0        0        0       20        0        8     5168     5167     5128     4985     5775     5774     5735     5592
    20028    20026    19906    20029     6123    21589    21508    21591    21590    21588    21509    21189
        1        1        1        1        0        0        0        0       20        0        9     5167     5166     4959     5128     5774     5773     5566     5735
    20025    20023    19911    20026     6118    21587    21512    21589    21588    21586    21114    21509
        1        1        1        1        0        0        0        0       20        0       10     5166     5165     4957     4959     5773     5772     5564     5566
    20022    20020    19379    20023     6119    21585    21115    21587    21586    21584    21109    21114
! ... 8639 like lines cut
!Material Id = {95090A51-59F9-421C-A2E1-CECE018221A8}
/wb,elem,end               !  done creating elements
/com,*********** Send User Defined Coordinate System(s) ***********
local,12,0,3.22109104861841,-1.36592399683213e-016,0.375,-0.,0.,0.
local,13,0,3.22109104861841,0.3310147200658,0.375,-0.,0.,0.
csys,0
toffst,459.67,  ! Temperature offset from absolute zero
/com,*********** Set Reference Temperature ***********
tref,71.6
/wb,mat,start              !  starting to send materials
/com,*********** Send Materials ***********
MP,EX,1,9999999.99889292,	! slinch s^-2 in^-1
MP,NUXY,1,0.33,

/wb,mat,end                !  done sending materials
!************************* Model Summary ********************
!Bike Crank 2 rev 2011 x.375,	NEU 1,	matid,	1
!************************* End Model Summary ********************
! get the diagonal of the bounding box. Needed later for other things
*get,_xmin,node,,mnloc,x
*get,_ymin,node,,mnloc,y
*get,_zmin,node,,mnloc,z
*get,_xmax,node,,mxloc,x
*get,_ymax,node,,mxloc,y
*get,_zmax,node,,mxloc,z
_ASMDIAG=(_xmax-_xmin)*(_xmax-_xmin)+(_ymax-_ymin)*(_ymax-_ymin)+(_zmax-_zmin)*(_zmax-_zmin)
_ASMDIAG=SQRT(_ASMDIAG)
/wb,contact,start          !  starting to send contact
/wb,contact,end            !  done creating contacts
/golist
/wb,load,start             !  starting to send loads
/com,*********** Fixed Supports ***********
CMBLOCK,_FIXEDSU,NODE,     1456
(8i10)
      1353      1354      1355      1356      1357      1358      1359      1360
      1361      1362      1363      1364      1365      1366      1367      1368
      1369      1370      1371      1373      1375      1376      1377      1378
      1379      1380      1381      1382      1383      1384      1385      1386
      1387      1388      1389      1390      1391      1392      1393      1394
      1395      1396      1397      1398      1399      1400      1401      1402
      1403      1404      1405      1406      1407      1408      1409      1410
      1411      1412      1413      1414      1415      1416      1417      1418
      1419      1420      1421      1422      1423      1424      1425      1426
      1427      1428      1429      1430      1431      1432      1433      1434
      1435      1436      1437      1438      1439      1440      1441      1442
      1443      1444      1445      1446      1447      1448      1449      1450
      1451      1452      1453      1454      1455      1456      1457      1458
      1459      1460      1461      1462      1463      1464      1465      1466
      2039      2040      2041      2042      2043      2044      2045      2046
      2047      2048      2050      2051      2052      2053      2054      2055
      2056      2057      2058      2059      2060      2061      2062      2063
      2064      2065      2066      2067      2068      2069      2070      2071
      2072      2073      2074      2075      2076      2077      2078      2079
      2080      2081      2082      2083      2084      2085      2086      2087
! ... 162 like lines cut

cmsel,s,_FIXEDSU
d,all,all
nsel,all
/com,*********** Define Force Using Surface Effect Elements ***********
local,14,0,0.,0.,0.,-0.,0.,0.
csys,0
et,2,154
eblock,10,,,36
(15i9)
     4330        2        2        2       14      207      155      153      205     6719     6610     6716     6263
     4331        2        2        2       14      171      119      155      207     6644     6614     6719     6262
     4332        2        2        2       14      175      123      119      171     6651     6521     6644     6261
     4333        2        2        2       14      155      103       99      153     6609     6468     6604     6610
     4334        2        2        2       14      119       32      103      155     6512     6474     6609     6614
     4335        2        2        2       14      123       38       32      119     6520     6329     6512     6521
     4336        2        2        2       14      103      101       97       99     6467     6248     6460     6468
     4337        2        2        2       14       32       28      101      103     6317     6247     6467     6474
     4338        2        2        2       14       38       36       28       32     6328     6246     6317     6329
     4339        2        2        2       14      161      109      110      162     6624     6487     6625     6254
     4340        2        2        2       14      164      112      109      161     6630     6494     6624     6253
     4341        2        2        2       14      205      153      112      164     6716     6605     6630     6252
     4342        2        2        2       14      109       11       12      110     6486     6277     6488     6487
     4343        2        2        2       14      112       17       11      109     6493     6287     6486     6494
     4344        2        2        2       14      153       99       17      112     6604     6461     6493     6605
     4345        2        2        2       14       11        9       10       12     6276     6251     6279     6277
     4346        2        2        2       14       17       14        9       11     6286     6250     6276     6287
     4347        2        2        2       14       99       97       14       17     6460     6249     6286     6461
     4348        2        2        2       14      189      137      123      175     6680     6616     6651     6257
     4349        2        2        2       14      190      138      137      189     6683     6556     6680     6256
! ... 17 like lines cut
esel,s,type,,2
keyop,2,2,1                ! Apply load in local coordinate system
keyop,2,7,1                ! Use original area so load is constant in large deformation
keyop,2,11,2               ! Use real and not project area
esel,all

*DIM,_loadvari67x,TABLE,2,1,1,TIME,
! Time values
_loadvari67x(1,0,1) = 0.
_loadvari67x(2,0,1) = 1.
! Load values
_loadvari67x(1,1,1) = 0.
_loadvari67x(2,1,1) = 0.


*DIM,_loadvari67y,TABLE,2,1,1,TIME,
! Time values
_loadvari67y(1,0,1) = 0.
_loadvari67y(2,0,1) = 1.
! Load values
_loadvari67y(1,1,1) = 0.
_loadvari67y(2,1,1) = 509.328442194509


*DIM,_loadvari67z,TABLE,2,1,1,TIME,
! Time values
_loadvari67z(1,0,1) = 0.
_loadvari67z(2,0,1) = 1.
! Load values
_loadvari67z(1,1,1) = 0.
_loadvari67z(2,1,1) = 0.

/gst,on,on
fini
*get,_numnode,node,0,count
*get,_numelem,elem,0,count
*get, _MAXELEMNUM, elem, 0, NUM, MAX
*get, _MAXNODENUM, node, 0, NUM, MAX
*get, _MAXELEMTYPE, etyp, 0, NUM, MAX
*get, _MAXREALCONST, real, 0, NUM, MAX
/go
/wb,load,end               !  done creating loads
/com,--- Number of total nodes = %_numnode%
/com,--- Number of contact elements = 36
/com,--- Number of spring elements = 0
/com,--- Number of bearing elements = 0
/com,--- Number of solid elements = 4329
/com,--- Number of condensed parts = 0
/com,--- Number of total elements = %_numelem%
*get,_wallbsol,active,,time,wall
/com,****************************************************************************
/com,*************************    SOLUTION       ********************************
/com,****************************************************************************
/solu
antype,0                   ! static analysis
eqsl,pcg,1e-8,,,,,,1
cntr,print,1               ! print out contact info and also make no initial contact an error
dmpoption,emat,no             ! Don't combine emat file for DANSYS
dmpoption,esav,no             ! Don't combine esav file for DANSYS
nldiag,cont,iter           ! print out contact info each equilibrium iteration
rescontrol,,none                 ! Do not keep any restart files
/com,****************************************************
/com,******************* SOLVE FOR LS 1 OF 1 ****************
esel,s,type,,2
nsle
sfe,all,1,pres,1,%_loadvari67x%
sfe,all,2,pres,1,%_loadvari67y%
sfe,all,3,pres,1,%_loadvari67z%
nsel,all
esel,all
/nopr
/gopr
nsub,1,1,1
time,1.
outres,erase
outres,all,none
outres,nsol,all
outres,rsol,all
outres,strs,all
outres,epel,all
outres,eppl,all
stabilize,off                   ! Stabilization turned OFF by user
! *********** WB SOLVE COMMAND ***********
! check interactive state
*get,ANSINTER_,active,,int
*if,ANSINTER_,ne,0,then
/eof
*endif
solve
/com *************** Write FE CONNECTORS ********* 
CEWRITE,file,ce,,INTE
/com,****************************************************
/com,*************** FINISHED SOLVE FOR LS 1 *************
*get,_wallasol,active,,time,wall
/nopr
*get,_numnode,node,0,count
*get,_numelem,elem,0,count
*get, _MAXELEMNUM, elem, 0, NUM, MAX
*get, _MAXNODENUM, node, 0, NUM, MAX,,,INTERNAL
*get, _MAXELEMTYPE, etyp, 0, NUM, MAX
*get, _MAXREALCONST, real, 0, NUM, MAX
/gopr
*get,_PCGITER,active,,solu,cgiter
/post1
xmlo,ENCODING,ISO-8859-1
xmlo,parm
/xml,parm,xml
fini
/gopr
*get,_walldone,active,,time,wall
_preptime=(_wallbsol-_wallstrt)*3600
_solvtime=(_wallasol-_wallbsol)*3600
_posttime=(_walldone-_wallasol)*3600
_totaltim=(_walldone-_wallstrt)*3600
/wb,file,end               ! done with WB generated input
